5
Zeit: 0.00000000
H	2.00000000	2.00000000	2.00000000
H	0.00000000	0.00000000	0.00000000
H	0.00000000	0.00000000	9.00000000
H	0.00000000	10.00000000	0.00000000
5
Zeit: 0.01000000
H	2.00000000	2.00000000	2.10000000
H	0.00000000	0.00000000	0.00060000
H	0.00000000	0.00000000	8.99940000
H	0.00000000	10.00000000	0.00000000
5
Zeit: 0.02000000
H	2.00000000	2.00000000	2.20000000
H	0.00000000	0.00000000	0.00237290
H	0.00000000	0.00000000	8.99762710
H	0.00000000	10.00000000	0.00000000
5
Zeit: 0.03000000
H	2.00000000	2.00000000	2.30000000
H	0.00000000	0.00000000	0.00524166
H	0.00000000	0.00000000	8.99475834
H	0.00000000	10.00000000	0.00000000
5
Zeit: 0.04000000
H	2.00000000	2.00000000	2.40000000
H	0.00000000	0.00000000	0.00909062
H	0.00000000	0.00000000	8.99090938
H	0.00000000	10.00000000	0.00000000
5
Zeit: 0.05000000
H	0.00000000	0.00000000	0.01378059
H	2.00000000	2.00000000	2.50000000
H	0.00000000	0.00000000	8.98621941
H	0.00000000	10.00000000	0.00000000
5
Zeit: 0.06000000
H	0.00000000	0.00000000	0.01916396
H	2.00000000	2.00000000	2.60000000
H	0.00000000	0.00000000	8.98083604
H	0.00000000	10.00000000	0.00000000
5
Zeit: 0.07000000
H	0.00000000	0.00000000	0.02509695
H	2.00000000	2.00000000	2.70000000
H	0.00000000	0.00000000	8.97490305
H	0.00000000	10.00000000	0.00000000
5
Zeit: 0.08000000
H	0.00000000	0.00000000	0.03144794
H	2.00000000	2.00000000	2.80000000
H	0.00000000	0.00000000	8.96855206
H	0.00000000	10.00000000	0.00000000
5
Zeit: 0.09000000
H	0.00000000	0.00000000	0.03810196
H	2.00000000	2.00000000	2.90000000
H	0.00000000	0.00000000	8.96189804
H	0.00000000	10.00000000	0.00000000
5
Zeit: 0.10000000
H	0.00000000	0.00000000	0.04496213
H	2.00000000	2.00000000	3.00000000
H	0.00000000	0.00000000	8.95503787
H	0.00000000	10.00000000	0.00000000
5
Zeit: 0.11000000
H	0.00000000	0.00000000	0.05194908
H	2.00000000	2.00000000	3.10000000
H	0.00000000	0.00000000	8.94805092
H	0.00000000	10.00000000	0.00000000
5
Zeit: 0.12000000
H	0.00000000	0.00000000	0.05899924
H	2.00000000	2.00000000	3.20000000
H	0.00000000	0.00000000	8.94100076
H	0.00000000	10.00000000	0.00000000
5
Zeit: 0.13000000
H	0.00000000	0.00000000	0.06606271
H	2.00000000	2.00000000	3.30000000
H	0.00000000	0.00000000	8.93393729
H	0.00000000	10.00000000	0.00000000
5
Zeit: 0.14000000
H	0.00000000	0.00000000	0.07310093
H	2.00000000	2.00000000	3.40000000
H	0.00000000	0.00000000	8.92689907
H	0.00000000	10.00000000	0.00000000
5
Zeit: 0.15000000
H	0.00000000	0.00000000	0.08008468
H	2.00000000	2.00000000	3.50000000
H	0.00000000	0.00000000	8.91991532
H	0.00000000	10.00000000	0.00000000
5
Zeit: 0.16000000
H	0.00000000	0.00000000	0.08699214
H	2.00000000	2.00000000	3.60000000
H	0.00000000	0.00000000	8.91300786
H	0.00000000	10.00000000	0.00000000
5
Zeit: 0.17000000
H	0.00000000	0.00000000	0.09380744
H	2.00000000	2.00000000	3.70000000
H	0.00000000	0.00000000	8.90619256
H	0.00000000	10.00000000	0.00000000
5
Zeit: 0.18000000
H	0.00000000	0.00000000	0.10051931
H	2.00000000	2.00000000	3.80000000
H	0.00000000	0.00000000	8.89948069
H	0.00000000	10.00000000	0.00000000
5
Zeit: 0.19000000
H	0.00000000	0.00000000	0.10712011
H	2.00000000	2.00000000	3.90000000
H	0.00000000	0.00000000	8.89287989
H	0.00000000	10.00000000	0.00000000
5
Zeit: 0.20000000
H	0.00000000	0.00000000	0.11360498
H	2.00000000	2.00000000	4.00000000
H	0.00000000	0.00000000	8.88639502
H	0.00000000	10.00000000	0.00000000
5
Zeit: 0.21000000
H	0.00000000	0.00000000	0.11997120
H	2.00000000	2.00000000	4.10000000
H	0.00000000	0.00000000	8.88002880
H	0.00000000	10.00000000	0.00000000
5
Zeit: 0.22000000
H	0.00000000	0.00000000	0.12621766
H	2.00000000	2.00000000	4.20000000
H	0.00000000	0.00000000	8.87378234
H	0.00000000	10.00000000	0.00000000
5
Zeit: 0.23000000
H	0.00000000	0.00000000	0.13234452
H	2.00000000	2.00000000	4.30000000
H	0.00000000	0.00000000	8.86765548
H	0.00000000	10.00000000	0.00000000
5
Zeit: 0.24000000
H	0.00000000	0.00000000	0.13835283
H	2.00000000	2.00000000	4.40000000
H	0.00000000	0.00000000	8.86164717
H	0.00000000	10.00000000	0.00000000
5
Zeit: 0.25000000
H	0.00000000	0.00000000	0.14424434
H	2.00000000	2.00000000	4.50000000
H	0.00000000	0.00000000	8.85575566
H	0.00000000	10.00000000	0.00000000
5
Zeit: 0.26000000
H	0.00000000	0.00000000	0.15002128
H	2.00000000	2.00000000	4.60000000
H	0.00000000	0.00000000	8.84997872
H	0.00000000	10.00000000	0.00000000
5
Zeit: 0.27000000
H	0.00000000	0.00000000	0.15568622
H	2.00000000	2.00000000	4.70000000
H	0.00000000	0.00000000	8.84431378
H	0.00000000	10.00000000	0.00000000
5
Zeit: 0.28000000
H	0.00000000	0.00000000	0.16124200
H	2.00000000	2.00000000	4.80000000
H	0.00000000	0.00000000	8.83875800
H	0.00000000	10.00000000	0.00000000
5
Zeit: 0.29000000
H	0.00000000	0.00000000	0.16669157
H	2.00000000	2.00000000	4.90000000
H	0.00000000	0.00000000	8.83330843
H	0.00000000	10.00000000	0.00000000
5
Zeit: 0.30000000
H	0.00000000	0.00000000	0.17203800
H	2.00000000	2.00000000	5.00000000
H	0.00000000	0.00000000	8.82796200
H	0.00000000	10.00000000	0.00000000
5
Zeit: 0.31000000
H	0.00000000	0.00000000	0.17728436
H	2.00000000	2.00000000	5.10000000
H	0.00000000	0.00000000	8.82271564
H	0.00000000	10.00000000	0.00000000
5
Zeit: 0.32000000
H	0.00000000	0.00000000	0.18243374
H	2.00000000	2.00000000	5.20000000
H	0.00000000	0.00000000	8.81756626
H	0.00000000	10.00000000	0.00000000
5
Zeit: 0.33000000
H	0.00000000	0.00000000	0.18748920
H	2.00000000	2.00000000	5.30000000
H	0.00000000	0.00000000	8.81251080
H	0.00000000	10.00000000	0.00000000
5
Zeit: 0.34000000
H	0.00000000	0.00000000	0.19245373
H	2.00000000	2.00000000	5.40000000
H	0.00000000	0.00000000	8.80754627
H	0.00000000	10.00000000	0.00000000
5
Zeit: 0.35000000
H	0.00000000	0.00000000	0.19733026
H	2.00000000	2.00000000	5.50000000
H	0.00000000	0.00000000	8.80266974
H	0.00000000	10.00000000	0.00000000
5
Zeit: 0.36000000
H	0.00000000	0.00000000	0.20212165
H	2.00000000	2.00000000	5.60000000
H	0.00000000	0.00000000	8.79787835
H	0.00000000	10.00000000	0.00000000
5
Zeit: 0.37000000
H	0.00000000	0.00000000	0.20683066
H	2.00000000	2.00000000	5.70000000
H	0.00000000	0.00000000	8.79316934
H	0.00000000	10.00000000	0.00000000
5
Zeit: 0.38000000
H	0.00000000	0.00000000	0.21145996
H	2.00000000	2.00000000	5.80000000
H	0.00000000	0.00000000	8.78854004
H	0.00000000	10.00000000	0.00000000
5
Zeit: 0.39000000
H	0.00000000	0.00000000	0.21601214
H	2.00000000	2.00000000	5.90000000
H	0.00000000	0.00000000	8.78398786
H	0.00000000	10.00000000	0.00000000
5
Zeit: 0.40000000
H	0.00000000	0.00000000	0.22048968
H	2.00000000	2.00000000	6.00000000
H	0.00000000	0.00000000	8.77951032
H	0.00000000	10.00000000	0.00000000
5
Zeit: 0.41000000
H	0.00000000	0.00000000	0.22489499
H	2.00000000	2.00000000	6.10000000
H	0.00000000	0.00000000	8.77510501
H	0.00000000	10.00000000	0.00000000
5
Zeit: 0.42000000
H	0.00000000	0.00000000	0.22923035
H	2.00000000	2.00000000	6.20000000
H	0.00000000	0.00000000	8.77076965
H	0.00000000	10.00000000	0.00000000
5
Zeit: 0.43000000
H	0.00000000	0.00000000	0.23349800
H	2.00000000	2.00000000	6.30000000
H	0.00000000	0.00000000	8.76650200
H	0.00000000	10.00000000	0.00000000
5
Zeit: 0.44000000
H	0.00000000	0.00000000	0.23770004
H	2.00000000	2.00000000	6.40000000
H	0.00000000	0.00000000	8.76229996
H	0.00000000	10.00000000	0.00000000
5
Zeit: 0.45000000
H	0.00000000	0.00000000	0.24183852
H	2.00000000	2.00000000	6.50000000
H	0.00000000	0.00000000	8.75816148
H	0.00000000	10.00000000	0.00000000
5
Zeit: 0.46000000
H	0.00000000	0.00000000	0.24591539
H	2.00000000	2.00000000	6.60000000
H	0.00000000	0.00000000	8.75408461
H	0.00000000	10.00000000	0.00000000
5
Zeit: 0.47000000
H	0.00000000	0.00000000	0.24993253
H	2.00000000	2.00000000	6.70000000
H	0.00000000	0.00000000	8.75006747
H	0.00000000	10.00000000	0.00000000
5
Zeit: 0.48000000
H	0.00000000	0.00000000	0.25389174
H	2.00000000	2.00000000	6.80000000
H	0.00000000	0.00000000	8.74610826
H	0.00000000	10.00000000	0.00000000
5
Zeit: 0.49000000
H	0.00000000	0.00000000	0.25779474
H	2.00000000	2.00000000	6.90000000
H	0.00000000	0.00000000	8.74220526
H	0.00000000	10.00000000	0.00000000
5
Zeit: 0.50000000
H	0.00000000	0.00000000	0.26164320
H	2.00000000	2.00000000	7.00000000
H	0.00000000	0.00000000	8.73835680
H	0.00000000	10.00000000	0.00000000
5
Zeit: 0.51000000
H	0.00000000	0.00000000	0.26543870
H	2.00000000	2.00000000	7.10000000
H	0.00000000	0.00000000	8.73456130
H	0.00000000	10.00000000	0.00000000
5
Zeit: 0.52000000
H	0.00000000	0.00000000	0.26918276
H	2.00000000	2.00000000	7.20000000
H	0.00000000	0.00000000	8.73081724
H	0.00000000	10.00000000	0.00000000
5
Zeit: 0.53000000
H	0.00000000	0.00000000	0.27287685
H	2.00000000	2.00000000	7.30000000
H	0.00000000	0.00000000	8.72712315
H	0.00000000	10.00000000	0.00000000
5
Zeit: 0.54000000
H	0.00000000	0.00000000	0.27652237
H	2.00000000	2.00000000	7.40000000
H	0.00000000	0.00000000	8.72347763
H	0.00000000	10.00000000	0.00000000
5
Zeit: 0.55000000
H	0.00000000	0.00000000	0.28012067
H	2.00000000	2.00000000	7.50000000
H	0.00000000	0.00000000	8.71987933
H	0.00000000	10.00000000	0.00000000
5
Zeit: 0.56000000
H	0.00000000	0.00000000	0.28367305
H	0.00000000	0.00000000	8.71632695
H	2.00000000	2.00000000	7.60000000
H	0.00000000	10.00000000	0.00000000
5
Zeit: 0.57000000
H	0.00000000	0.00000000	0.28718076
H	0.00000000	0.00000000	8.71281924
H	2.00000000	2.00000000	7.70000000
H	0.00000000	10.00000000	0.00000000
5
Zeit: 0.58000000
H	0.00000000	0.00000000	0.29064498
H	0.00000000	0.00000000	8.70935502
H	2.00000000	2.00000000	7.80000000
H	0.00000000	10.00000000	0.00000000
5
Zeit: 0.59000000
H	0.00000000	0.00000000	0.29406687
H	0.00000000	0.00000000	8.70593313
H	2.00000000	2.00000000	7.90000000
H	0.00000000	10.00000000	0.00000000
5
Zeit: 0.60000000
H	0.00000000	0.00000000	0.29744754
H	0.00000000	0.00000000	8.70255246
H	2.00000000	2.00000000	8.00000000
H	0.00000000	10.00000000	0.00000000
5
Zeit: 0.61000000
H	0.00000000	0.00000000	0.30078805
H	0.00000000	0.00000000	8.69921195
H	2.00000000	2.00000000	8.10000000
H	0.00000000	10.00000000	0.00000000
5
Zeit: 0.62000000
H	0.00000000	0.00000000	0.30408942
H	0.00000000	0.00000000	8.69591058
H	2.00000000	2.00000000	8.20000000
H	0.00000000	10.00000000	0.00000000
5
Zeit: 0.63000000
H	0.00000000	0.00000000	0.30735264
H	0.00000000	0.00000000	8.69264736
H	2.00000000	2.00000000	8.30000000
H	0.00000000	10.00000000	0.00000000
5
Zeit: 0.64000000
H	0.00000000	0.00000000	0.31057867
H	0.00000000	0.00000000	8.68942133
H	2.00000000	2.00000000	8.40000000
H	0.00000000	10.00000000	0.00000000
5
Zeit: 0.65000000
H	0.00000000	0.00000000	0.31376841
H	0.00000000	0.00000000	8.68623159
H	2.00000000	2.00000000	8.50000000
H	0.00000000	10.00000000	0.00000000
5
Zeit: 0.66000000
H	0.00000000	0.00000000	0.31692275
H	0.00000000	0.00000000	8.68307725
H	2.00000000	2.00000000	8.60000000
H	0.00000000	10.00000000	0.00000000
5
Zeit: 0.67000000
H	0.00000000	0.00000000	0.32004254
H	0.00000000	0.00000000	8.67995746
H	2.00000000	2.00000000	8.70000000
H	0.00000000	10.00000000	0.00000000
5
Zeit: 0.68000000
H	0.00000000	0.00000000	0.32312860
H	0.00000000	0.00000000	8.67687140
H	2.00000000	2.00000000	8.80000000
H	0.00000000	10.00000000	0.00000000
5
Zeit: 0.69000000
H	0.00000000	0.00000000	0.32618172
H	0.00000000	0.00000000	8.67381828
H	2.00000000	2.00000000	8.90000000
H	0.00000000	10.00000000	0.00000000
5
Zeit: 0.70000000
H	0.00000000	0.00000000	0.32920267
H	0.00000000	0.00000000	8.67079733
H	2.00000000	2.00000000	9.00000000
H	0.00000000	10.00000000	0.00000000
5
Zeit: 0.71000000
H	0.00000000	0.00000000	0.33219217
H	0.00000000	0.00000000	8.66780783
H	2.00000000	2.00000000	9.10000000
H	0.00000000	10.00000000	0.00000000
5
Zeit: 0.72000000
H	0.00000000	0.00000000	0.33515095
H	0.00000000	0.00000000	8.66484905
H	2.00000000	2.00000000	9.20000000
H	0.00000000	10.00000000	0.00000000
5
Zeit: 0.73000000
H	0.00000000	0.00000000	0.33807970
H	0.00000000	0.00000000	8.66192030
H	2.00000000	2.00000000	9.30000000
H	0.00000000	10.00000000	0.00000000
5
Zeit: 0.74000000
H	0.00000000	0.00000000	0.34097907
H	0.00000000	0.00000000	8.65902093
H	2.00000000	2.00000000	9.40000000
H	0.00000000	10.00000000	0.00000000
5
Zeit: 0.75000000
H	0.00000000	0.00000000	0.34384972
H	0.00000000	0.00000000	8.65615028
H	2.00000000	2.00000000	9.50000000
H	0.00000000	10.00000000	0.00000000
5
Zeit: 0.76000000
H	0.00000000	0.00000000	0.34669226
H	0.00000000	0.00000000	8.65330774
H	2.00000000	2.00000000	9.60000000
H	0.00000000	10.00000000	0.00000000
5
Zeit: 0.77000000
H	0.00000000	0.00000000	0.34950729
H	0.00000000	0.00000000	8.65049271
H	2.00000000	2.00000000	9.70000000
H	0.00000000	10.00000000	0.00000000
5
Zeit: 0.78000000
H	0.00000000	0.00000000	0.35229541
H	0.00000000	0.00000000	8.64770459
H	2.00000000	2.00000000	9.80000000
H	0.00000000	10.00000000	0.00000000
5
Zeit: 0.79000000
H	0.00000000	0.00000000	0.35505716
H	0.00000000	0.00000000	8.64494284
H	2.00000000	2.00000000	9.90000000
H	0.00000000	10.00000000	0.00000000
5
Zeit: 0.80000000
H	0.00000000	0.00000000	0.35779310
H	0.00000000	0.00000000	8.64220690
H	2.00000000	2.00000000	10.00000000
H	0.00000000	10.00000000	0.00000000
5
Zeit: 0.81000000
H	0.00000000	0.00000000	0.36050377
H	2.00000000	2.00000000	0.10000000
H	0.00000000	0.00000000	8.63949623
H	0.00000000	10.00000000	0.00000000
5
Zeit: 0.82000000
H	0.00000000	0.00000000	0.36318966
H	2.00000000	2.00000000	0.20000000
H	0.00000000	0.00000000	8.63681034
H	0.00000000	10.00000000	0.00000000
5
Zeit: 0.83000000
H	0.00000000	0.00000000	0.36585128
H	2.00000000	2.00000000	0.30000000
H	0.00000000	0.00000000	8.63414872
H	0.00000000	10.00000000	0.00000000
5
Zeit: 0.84000000
H	0.00000000	0.00000000	0.36848911
H	2.00000000	2.00000000	0.40000000
H	0.00000000	0.00000000	8.63151089
H	0.00000000	10.00000000	0.00000000
5
Zeit: 0.85000000
H	0.00000000	0.00000000	0.37110362
H	2.00000000	2.00000000	0.50000000
H	0.00000000	0.00000000	8.62889638
H	0.00000000	10.00000000	0.00000000
5
Zeit: 0.86000000
H	0.00000000	0.00000000	0.37369525
H	2.00000000	2.00000000	0.60000000
H	0.00000000	0.00000000	8.62630475
H	0.00000000	10.00000000	0.00000000
5
Zeit: 0.87000000
H	0.00000000	0.00000000	0.37626446
H	2.00000000	2.00000000	0.70000000
H	0.00000000	0.00000000	8.62373554
H	0.00000000	10.00000000	0.00000000
5
Zeit: 0.88000000
H	0.00000000	0.00000000	0.37881167
H	2.00000000	2.00000000	0.80000000
H	0.00000000	0.00000000	8.62118833
H	0.00000000	10.00000000	0.00000000
5
Zeit: 0.89000000
H	0.00000000	0.00000000	0.38133729
H	2.00000000	2.00000000	0.90000000
H	0.00000000	0.00000000	8.61866271
H	0.00000000	10.00000000	0.00000000
5
Zeit: 0.90000000
H	0.00000000	0.00000000	0.38384172
H	2.00000000	2.00000000	1.00000000
H	0.00000000	0.00000000	8.61615828
H	0.00000000	10.00000000	0.00000000
5
Zeit: 0.91000000
H	0.00000000	0.00000000	0.38632536
H	2.00000000	2.00000000	1.10000000
H	0.00000000	0.00000000	8.61367464
H	0.00000000	10.00000000	0.00000000
5
Zeit: 0.92000000
H	0.00000000	0.00000000	0.38878860
H	2.00000000	2.00000000	1.20000000
H	0.00000000	0.00000000	8.61121140
H	0.00000000	10.00000000	0.00000000
5
Zeit: 0.93000000
H	0.00000000	0.00000000	0.39123178
H	2.00000000	2.00000000	1.30000000
H	0.00000000	0.00000000	8.60876822
H	0.00000000	10.00000000	0.00000000
5
Zeit: 0.94000000
H	0.00000000	0.00000000	0.39365529
H	2.00000000	2.00000000	1.40000000
H	0.00000000	0.00000000	8.60634471
H	0.00000000	10.00000000	0.00000000
5
Zeit: 0.95000000
H	0.00000000	0.00000000	0.39605947
H	2.00000000	2.00000000	1.50000000
H	0.00000000	0.00000000	8.60394053
H	0.00000000	10.00000000	0.00000000
5
Zeit: 0.96000000
H	0.00000000	0.00000000	0.39844465
H	2.00000000	2.00000000	1.60000000
H	0.00000000	0.00000000	8.60155535
H	0.00000000	10.00000000	0.00000000
5
Zeit: 0.97000000
H	0.00000000	0.00000000	0.40081117
H	2.00000000	2.00000000	1.70000000
H	0.00000000	0.00000000	8.59918883
H	0.00000000	10.00000000	0.00000000
5
Zeit: 0.98000000
H	0.00000000	0.00000000	0.40315936
H	2.00000000	2.00000000	1.80000000
H	0.00000000	0.00000000	8.59684064
H	0.00000000	10.00000000	0.00000000
5
Zeit: 0.99000000
H	0.00000000	0.00000000	0.40548951
H	2.00000000	2.00000000	1.90000000
H	0.00000000	0.00000000	8.59451049
H	0.00000000	10.00000000	0.00000000
5
Zeit: 1.00000000
H	0.00000000	0.00000000	0.40780195
H	2.00000000	2.00000000	2.00000000
H	0.00000000	0.00000000	8.59219805
H	0.00000000	10.00000000	0.00000000
5
Zeit: 1.01000000
H	0.00000000	0.00000000	0.41009697
H	2.00000000	2.00000000	2.10000000
H	0.00000000	0.00000000	8.58990303
H	0.00000000	10.00000000	0.00000000
5
Zeit: 1.02000000
H	0.00000000	0.00000000	0.41237486
H	2.00000000	2.00000000	2.20000000
H	0.00000000	0.00000000	8.58762514
H	0.00000000	10.00000000	0.00000000
5
Zeit: 1.03000000
H	0.00000000	0.00000000	0.41463590
H	2.00000000	2.00000000	2.30000000
H	0.00000000	0.00000000	8.58536410
H	0.00000000	10.00000000	0.00000000
5
Zeit: 1.04000000
H	0.00000000	0.00000000	0.41688036
H	2.00000000	2.00000000	2.40000000
H	0.00000000	0.00000000	8.58311964
H	0.00000000	10.00000000	0.00000000
5
Zeit: 1.05000000
H	0.00000000	0.00000000	0.41910852
H	2.00000000	2.00000000	2.50000000
H	0.00000000	0.00000000	8.58089148
H	0.00000000	10.00000000	0.00000000
5
Zeit: 1.06000000
H	0.00000000	0.00000000	0.42132064
H	2.00000000	2.00000000	2.60000000
H	0.00000000	0.00000000	8.57867936
H	0.00000000	10.00000000	0.00000000
5
Zeit: 1.07000000
H	0.00000000	0.00000000	0.42351697
H	2.00000000	2.00000000	2.70000000
H	0.00000000	0.00000000	8.57648303
H	0.00000000	10.00000000	0.00000000
5
Zeit: 1.08000000
H	0.00000000	0.00000000	0.42569776
H	2.00000000	2.00000000	2.80000000
H	0.00000000	0.00000000	8.57430224
H	0.00000000	10.00000000	0.00000000
5
Zeit: 1.09000000
H	0.00000000	0.00000000	0.42786326
H	2.00000000	2.00000000	2.90000000
H	0.00000000	0.00000000	8.57213674
H	0.00000000	10.00000000	0.00000000
5
Zeit: 1.10000000
H	0.00000000	0.00000000	0.43001369
H	2.00000000	2.00000000	3.00000000
H	0.00000000	0.00000000	8.56998631
H	0.00000000	10.00000000	0.00000000
5
Zeit: 1.11000000
H	0.00000000	0.00000000	0.43214931
H	2.00000000	2.00000000	3.10000000
H	0.00000000	0.00000000	8.56785069
H	0.00000000	10.00000000	0.00000000
5
Zeit: 1.12000000
H	0.00000000	0.00000000	0.43427031
H	2.00000000	2.00000000	3.20000000
H	0.00000000	0.00000000	8.56572969
H	0.00000000	10.00000000	0.00000000
5
Zeit: 1.13000000
H	0.00000000	0.00000000	0.43637694
H	2.00000000	2.00000000	3.30000000
H	0.00000000	0.00000000	8.56362306
H	0.00000000	10.00000000	0.00000000
5
Zeit: 1.14000000
H	0.00000000	0.00000000	0.43846941
H	2.00000000	2.00000000	3.40000000
H	0.00000000	0.00000000	8.56153059
H	0.00000000	10.00000000	0.00000000
5
Zeit: 1.15000000
H	0.00000000	0.00000000	0.44054792
H	2.00000000	2.00000000	3.50000000
H	0.00000000	0.00000000	8.55945208
H	0.00000000	10.00000000	0.00000000
5
Zeit: 1.16000000
H	0.00000000	0.00000000	0.44261268
H	2.00000000	2.00000000	3.60000000
H	0.00000000	0.00000000	8.55738732
H	0.00000000	10.00000000	0.00000000
5
Zeit: 1.17000000
H	0.00000000	0.00000000	0.44466390
H	2.00000000	2.00000000	3.70000000
H	0.00000000	0.00000000	8.55533610
H	0.00000000	10.00000000	0.00000000
5
Zeit: 1.18000000
H	0.00000000	0.00000000	0.44670176
H	2.00000000	2.00000000	3.80000000
H	0.00000000	0.00000000	8.55329824
H	0.00000000	10.00000000	0.00000000
5
Zeit: 1.19000000
H	0.00000000	0.00000000	0.44872647
H	2.00000000	2.00000000	3.90000000
H	0.00000000	0.00000000	8.55127353
H	0.00000000	10.00000000	0.00000000
5
Zeit: 1.20000000
H	0.00000000	0.00000000	0.45073821
H	2.00000000	2.00000000	4.00000000
H	0.00000000	0.00000000	8.54926179
H	0.00000000	10.00000000	0.00000000
5
Zeit: 1.21000000
H	0.00000000	0.00000000	0.45273716
H	2.00000000	2.00000000	4.10000000
H	0.00000000	0.00000000	8.54726284
H	0.00000000	10.00000000	0.00000000
5
Zeit: 1.22000000
H	0.00000000	0.00000000	0.45472350
H	2.00000000	2.00000000	4.20000000
H	0.00000000	0.00000000	8.54527650
H	0.00000000	10.00000000	0.00000000
5
Zeit: 1.23000000
H	0.00000000	0.00000000	0.45669741
H	2.00000000	2.00000000	4.30000000
H	0.00000000	0.00000000	8.54330259
H	0.00000000	10.00000000	0.00000000
5
Zeit: 1.24000000
H	0.00000000	0.00000000	0.45865906
H	2.00000000	2.00000000	4.40000000
H	0.00000000	0.00000000	8.54134094
H	0.00000000	10.00000000	0.00000000
5
Zeit: 1.25000000
H	0.00000000	0.00000000	0.46060862
H	2.00000000	2.00000000	4.50000000
H	0.00000000	0.00000000	8.53939138
H	0.00000000	10.00000000	0.00000000
5
Zeit: 1.26000000
H	0.00000000	0.00000000	0.46254625
H	2.00000000	2.00000000	4.60000000
H	0.00000000	0.00000000	8.53745375
H	0.00000000	10.00000000	0.00000000
5
Zeit: 1.27000000
H	0.00000000	0.00000000	0.46447212
H	2.00000000	2.00000000	4.70000000
H	0.00000000	0.00000000	8.53552788
H	0.00000000	10.00000000	0.00000000
5
Zeit: 1.28000000
H	0.00000000	0.00000000	0.46638638
H	2.00000000	2.00000000	4.80000000
H	0.00000000	0.00000000	8.53361362
H	0.00000000	10.00000000	0.00000000
5
Zeit: 1.29000000
H	0.00000000	0.00000000	0.46828919
H	2.00000000	2.00000000	4.90000000
H	0.00000000	0.00000000	8.53171081
H	0.00000000	10.00000000	0.00000000
5
Zeit: 1.30000000
H	0.00000000	0.00000000	0.47018069
H	2.00000000	2.00000000	5.00000000
H	0.00000000	0.00000000	8.52981931
H	0.00000000	10.00000000	0.00000000
5
Zeit: 1.31000000
H	0.00000000	0.00000000	0.47206104
H	2.00000000	2.00000000	5.10000000
H	0.00000000	0.00000000	8.52793896
H	0.00000000	10.00000000	0.00000000
5
Zeit: 1.32000000
H	0.00000000	0.00000000	0.47393038
H	2.00000000	2.00000000	5.20000000
H	0.00000000	0.00000000	8.52606962
H	0.00000000	10.00000000	0.00000000
5
Zeit: 1.33000000
H	0.00000000	0.00000000	0.47578886
H	2.00000000	2.00000000	5.30000000
H	0.00000000	0.00000000	8.52421114
H	0.00000000	10.00000000	0.00000000
5
Zeit: 1.34000000
H	0.00000000	0.00000000	0.47763661
H	2.00000000	2.00000000	5.40000000
H	0.00000000	0.00000000	8.52236339
H	0.00000000	10.00000000	0.00000000
5
Zeit: 1.35000000
H	0.00000000	0.00000000	0.47947377
H	2.00000000	2.00000000	5.50000000
H	0.00000000	0.00000000	8.52052623
H	0.00000000	10.00000000	0.00000000
5
Zeit: 1.36000000
H	0.00000000	0.00000000	0.48130047
H	2.00000000	2.00000000	5.60000000
H	0.00000000	0.00000000	8.51869953
H	0.00000000	10.00000000	0.00000000
5
Zeit: 1.37000000
H	0.00000000	0.00000000	0.48311685
H	2.00000000	2.00000000	5.70000000
H	0.00000000	0.00000000	8.51688315
H	0.00000000	10.00000000	0.00000000
5
Zeit: 1.38000000
H	0.00000000	0.00000000	0.48492303
H	2.00000000	2.00000000	5.80000000
H	0.00000000	0.00000000	8.51507697
H	0.00000000	10.00000000	0.00000000
5
Zeit: 1.39000000
H	0.00000000	0.00000000	0.48671914
H	2.00000000	2.00000000	5.90000000
H	0.00000000	0.00000000	8.51328086
H	0.00000000	10.00000000	0.00000000
5
Zeit: 1.40000000
H	0.00000000	0.00000000	0.48850531
H	2.00000000	2.00000000	6.00000000
H	0.00000000	0.00000000	8.51149469
H	0.00000000	10.00000000	0.00000000
5
Zeit: 1.41000000
H	0.00000000	0.00000000	0.49028165
H	2.00000000	2.00000000	6.10000000
H	0.00000000	0.00000000	8.50971835
H	0.00000000	10.00000000	0.00000000
5
Zeit: 1.42000000
H	0.00000000	0.00000000	0.49204829
H	2.00000000	2.00000000	6.20000000
H	0.00000000	0.00000000	8.50795171
H	0.00000000	10.00000000	0.00000000
5
Zeit: 1.43000000
H	0.00000000	0.00000000	0.49380533
H	2.00000000	2.00000000	6.30000000
H	0.00000000	0.00000000	8.50619467
H	0.00000000	10.00000000	0.00000000
5
Zeit: 1.44000000
H	0.00000000	0.00000000	0.49555291
H	2.00000000	2.00000000	6.40000000
H	0.00000000	0.00000000	8.50444709
H	0.00000000	10.00000000	0.00000000
5
Zeit: 1.45000000
H	0.00000000	0.00000000	0.49729112
H	2.00000000	2.00000000	6.50000000
H	0.00000000	0.00000000	8.50270888
H	0.00000000	10.00000000	0.00000000
5
Zeit: 1.46000000
H	0.00000000	0.00000000	0.49902008
H	2.00000000	2.00000000	6.60000000
H	0.00000000	0.00000000	8.50097992
H	0.00000000	10.00000000	0.00000000
5
Zeit: 1.47000000
H	0.00000000	0.00000000	0.50073989
H	2.00000000	2.00000000	6.70000000
H	0.00000000	0.00000000	8.49926011
H	0.00000000	10.00000000	0.00000000
5
Zeit: 1.48000000
H	0.00000000	0.00000000	0.50245068
H	2.00000000	2.00000000	6.80000000
H	0.00000000	0.00000000	8.49754932
H	0.00000000	10.00000000	0.00000000
5
Zeit: 1.49000000
H	0.00000000	0.00000000	0.50415252
H	2.00000000	2.00000000	6.90000000
H	0.00000000	0.00000000	8.49584748
H	0.00000000	10.00000000	0.00000000
5
Zeit: 1.50000000
H	0.00000000	0.00000000	0.50584554
H	2.00000000	2.00000000	7.00000000
H	0.00000000	0.00000000	8.49415446
H	0.00000000	10.00000000	0.00000000
5
Zeit: 1.51000000
H	0.00000000	0.00000000	0.50752983
H	2.00000000	2.00000000	7.10000000
H	0.00000000	0.00000000	8.49247017
H	0.00000000	10.00000000	0.00000000
5
Zeit: 1.52000000
H	0.00000000	0.00000000	0.50920549
H	2.00000000	2.00000000	7.20000000
H	0.00000000	0.00000000	8.49079451
H	0.00000000	10.00000000	0.00000000
5
Zeit: 1.53000000
H	0.00000000	0.00000000	0.51087262
H	2.00000000	2.00000000	7.30000000
H	0.00000000	0.00000000	8.48912738
H	0.00000000	10.00000000	0.00000000
5
Zeit: 1.54000000
H	0.00000000	0.00000000	0.51253131
H	2.00000000	2.00000000	7.40000000
H	0.00000000	0.00000000	8.48746869
H	0.00000000	10.00000000	0.00000000
5
Zeit: 1.55000000
H	0.00000000	0.00000000	0.51418166
H	2.00000000	2.00000000	7.50000000
H	0.00000000	0.00000000	8.48581834
H	0.00000000	10.00000000	0.00000000
5
Zeit: 1.56000000
H	0.00000000	0.00000000	0.51582376
H	0.00000000	0.00000000	8.48417624
H	2.00000000	2.00000000	7.60000000
H	0.00000000	10.00000000	0.00000000
5
Zeit: 1.57000000
H	0.00000000	0.00000000	0.51745770
H	0.00000000	0.00000000	8.48254230
H	2.00000000	2.00000000	7.70000000
H	0.00000000	10.00000000	0.00000000
5
Zeit: 1.58000000
H	0.00000000	0.00000000	0.51908356
H	0.00000000	0.00000000	8.48091644
H	2.00000000	2.00000000	7.80000000
H	0.00000000	10.00000000	0.00000000
5
Zeit: 1.59000000
H	0.00000000	0.00000000	0.52070144
H	0.00000000	0.00000000	8.47929856
H	2.00000000	2.00000000	7.90000000
H	0.00000000	10.00000000	0.00000000
5
Zeit: 1.60000000
H	0.00000000	0.00000000	0.52231143
H	0.00000000	0.00000000	8.47768857
H	2.00000000	2.00000000	8.00000000
H	0.00000000	10.00000000	0.00000000
5
Zeit: 1.61000000
H	0.00000000	0.00000000	0.52391360
H	0.00000000	0.00000000	8.47608640
H	2.00000000	2.00000000	8.10000000
H	0.00000000	10.00000000	0.00000000
5
Zeit: 1.62000000
H	0.00000000	0.00000000	0.52550804
H	0.00000000	0.00000000	8.47449196
H	2.00000000	2.00000000	8.20000000
H	0.00000000	10.00000000	0.00000000
5
Zeit: 1.63000000
H	0.00000000	0.00000000	0.52709483
H	0.00000000	0.00000000	8.47290517
H	2.00000000	2.00000000	8.30000000
H	0.00000000	10.00000000	0.00000000
5
Zeit: 1.64000000
H	0.00000000	0.00000000	0.52867405
H	0.00000000	0.00000000	8.47132595
H	2.00000000	2.00000000	8.40000000
H	0.00000000	10.00000000	0.00000000
5
Zeit: 1.65000000
H	0.00000000	0.00000000	0.53024579
H	0.00000000	0.00000000	8.46975421
H	2.00000000	2.00000000	8.50000000
H	0.00000000	10.00000000	0.00000000
5
Zeit: 1.66000000
H	0.00000000	0.00000000	0.53181011
H	0.00000000	0.00000000	8.46818989
H	2.00000000	2.00000000	8.60000000
H	0.00000000	10.00000000	0.00000000
5
Zeit: 1.67000000
H	0.00000000	0.00000000	0.53336710
H	0.00000000	0.00000000	8.46663290
H	2.00000000	2.00000000	8.70000000
H	0.00000000	10.00000000	0.00000000
5
Zeit: 1.68000000
H	0.00000000	0.00000000	0.53491683
H	0.00000000	0.00000000	8.46508317
H	2.00000000	2.00000000	8.80000000
H	0.00000000	10.00000000	0.00000000
5
Zeit: 1.69000000
H	0.00000000	0.00000000	0.53645938
H	0.00000000	0.00000000	8.46354062
H	2.00000000	2.00000000	8.90000000
H	0.00000000	10.00000000	0.00000000
5
Zeit: 1.70000000
H	0.00000000	0.00000000	0.53799481
H	0.00000000	0.00000000	8.46200519
H	2.00000000	2.00000000	9.00000000
H	0.00000000	10.00000000	0.00000000
5
Zeit: 1.71000000
H	0.00000000	0.00000000	0.53952320
H	0.00000000	0.00000000	8.46047680
H	2.00000000	2.00000000	9.10000000
H	0.00000000	10.00000000	0.00000000
5
Zeit: 1.72000000
H	0.00000000	0.00000000	0.54104462
H	0.00000000	0.00000000	8.45895538
H	2.00000000	2.00000000	9.20000000
H	0.00000000	10.00000000	0.00000000
5
Zeit: 1.73000000
H	0.00000000	0.00000000	0.54255914
H	0.00000000	0.00000000	8.45744086
H	2.00000000	2.00000000	9.30000000
H	0.00000000	10.00000000	0.00000000
5
Zeit: 1.74000000
H	0.00000000	0.00000000	0.54406683
H	0.00000000	0.00000000	8.45593317
H	2.00000000	2.00000000	9.40000000
H	0.00000000	10.00000000	0.00000000
5
Zeit: 1.75000000
H	0.00000000	0.00000000	0.54556776
H	0.00000000	0.00000000	8.45443224
H	2.00000000	2.00000000	9.50000000
H	0.00000000	10.00000000	0.00000000
5
Zeit: 1.76000000
H	0.00000000	0.00000000	0.54706198
H	0.00000000	0.00000000	8.45293802
H	2.00000000	2.00000000	9.60000000
H	0.00000000	10.00000000	0.00000000
5
Zeit: 1.77000000
H	0.00000000	0.00000000	0.54854957
H	0.00000000	0.00000000	8.45145043
H	2.00000000	2.00000000	9.70000000
H	0.00000000	10.00000000	0.00000000
5
Zeit: 1.78000000
H	0.00000000	0.00000000	0.55003059
H	0.00000000	0.00000000	8.44996941
H	2.00000000	2.00000000	9.80000000
H	0.00000000	10.00000000	0.00000000
5
Zeit: 1.79000000
H	0.00000000	0.00000000	0.55150511
H	0.00000000	0.00000000	8.44849489
H	2.00000000	2.00000000	9.90000000
H	0.00000000	10.00000000	0.00000000
5
Zeit: 1.80000000
H	0.00000000	0.00000000	0.55297318
H	0.00000000	0.00000000	8.44702682
H	2.00000000	2.00000000	10.00000000
H	0.00000000	10.00000000	0.00000000
5
Zeit: 1.81000000
H	0.00000000	0.00000000	0.55443487
H	2.00000000	2.00000000	0.10000000
H	0.00000000	0.00000000	8.44556513
H	0.00000000	10.00000000	0.00000000
5
Zeit: 1.82000000
H	0.00000000	0.00000000	0.55589024
H	2.00000000	2.00000000	0.20000000
H	0.00000000	0.00000000	8.44410976
H	0.00000000	10.00000000	0.00000000
5
Zeit: 1.83000000
H	0.00000000	0.00000000	0.55733935
H	2.00000000	2.00000000	0.30000000
H	0.00000000	0.00000000	8.44266065
H	0.00000000	10.00000000	0.00000000
5
Zeit: 1.84000000
H	0.00000000	0.00000000	0.55878225
H	2.00000000	2.00000000	0.40000000
H	0.00000000	0.00000000	8.44121775
H	0.00000000	10.00000000	0.00000000
5
Zeit: 1.85000000
H	0.00000000	0.00000000	0.56021900
H	2.00000000	2.00000000	0.50000000
H	0.00000000	0.00000000	8.43978100
H	0.00000000	10.00000000	0.00000000
5
Zeit: 1.86000000
H	0.00000000	0.00000000	0.56164967
H	2.00000000	2.00000000	0.60000000
H	0.00000000	0.00000000	8.43835033
H	0.00000000	10.00000000	0.00000000
5
Zeit: 1.87000000
H	0.00000000	0.00000000	0.56307431
H	2.00000000	2.00000000	0.70000000
H	0.00000000	0.00000000	8.43692569
H	0.00000000	10.00000000	0.00000000
5
Zeit: 1.88000000
H	0.00000000	0.00000000	0.56449296
H	2.00000000	2.00000000	0.80000000
H	0.00000000	0.00000000	8.43550704
H	0.00000000	10.00000000	0.00000000
5
Zeit: 1.89000000
H	0.00000000	0.00000000	0.56590570
H	2.00000000	2.00000000	0.90000000
H	0.00000000	0.00000000	8.43409430
H	0.00000000	10.00000000	0.00000000
5
Zeit: 1.90000000
H	0.00000000	0.00000000	0.56731256
H	2.00000000	2.00000000	1.00000000
H	0.00000000	0.00000000	8.43268744
H	0.00000000	10.00000000	0.00000000
5
Zeit: 1.91000000
H	0.00000000	0.00000000	0.56871361
H	2.00000000	2.00000000	1.10000000
H	0.00000000	0.00000000	8.43128639
H	0.00000000	10.00000000	0.00000000
5
Zeit: 1.92000000
H	0.00000000	0.00000000	0.57010890
H	2.00000000	2.00000000	1.20000000
H	0.00000000	0.00000000	8.42989110
H	0.00000000	10.00000000	0.00000000
5
Zeit: 1.93000000
H	0.00000000	0.00000000	0.57149847
H	2.00000000	2.00000000	1.30000000
H	0.00000000	0.00000000	8.42850153
H	0.00000000	10.00000000	0.00000000
5
Zeit: 1.94000000
H	0.00000000	0.00000000	0.57288238
H	2.00000000	2.00000000	1.40000000
H	0.00000000	0.00000000	8.42711762
H	0.00000000	10.00000000	0.00000000
5
Zeit: 1.95000000
H	0.00000000	0.00000000	0.57426067
H	2.00000000	2.00000000	1.50000000
H	0.00000000	0.00000000	8.42573933
H	0.00000000	10.00000000	0.00000000
5
Zeit: 1.96000000
H	0.00000000	0.00000000	0.57563341
H	2.00000000	2.00000000	1.60000000
H	0.00000000	0.00000000	8.42436659
H	0.00000000	10.00000000	0.00000000
5
Zeit: 1.97000000
H	0.00000000	0.00000000	0.57700063
H	2.00000000	2.00000000	1.70000000
H	0.00000000	0.00000000	8.42299937
H	0.00000000	10.00000000	0.00000000
5
Zeit: 1.98000000
H	0.00000000	0.00000000	0.57836239
H	2.00000000	2.00000000	1.80000000
H	0.00000000	0.00000000	8.42163761
H	0.00000000	10.00000000	0.00000000
5
Zeit: 1.99000000
H	0.00000000	0.00000000	0.57971872
H	2.00000000	2.00000000	1.90000000
H	0.00000000	0.00000000	8.42028128
H	0.00000000	10.00000000	0.00000000
5
Zeit: 2.00000000
H	0.00000000	0.00000000	0.58106969
H	2.00000000	2.00000000	2.00000000
H	0.00000000	0.00000000	8.41893031
H	0.00000000	10.00000000	0.00000000
