2
Zeit: 0.00000000
H	2.00000000	2.00000000	2.00000000
H	7.50000000	7.50000000	7.50000000
2
Zeit: 0.01000000
H	nan	nan	nan
H	7.50000000	7.50000000	7.50000000
2
Zeit: 0.02000000
H	nan	nan	nan
H	7.50000000	7.50000000	7.50000000
2
Zeit: 0.03000000
H	nan	nan	nan
H	7.50000000	7.50000000	7.50000000
2
Zeit: 0.04000000
H	nan	nan	nan
H	7.50000000	7.50000000	7.50000000
2
Zeit: 0.05000000
H	nan	nan	nan
H	7.50000000	7.50000000	7.50000000
2
Zeit: 0.06000000
H	nan	nan	nan
H	7.50000000	7.50000000	7.50000000
2
Zeit: 0.07000000
H	nan	nan	nan
H	7.50000000	7.50000000	7.50000000
2
Zeit: 0.08000000
H	nan	nan	nan
H	7.50000000	7.50000000	7.50000000
2
Zeit: 0.09000000
H	nan	nan	nan
H	7.50000000	7.50000000	7.50000000
2
Zeit: 0.10000000
H	nan	nan	nan
H	7.50000000	7.50000000	7.50000000
2
Zeit: 0.11000000
H	nan	nan	nan
H	7.50000000	7.50000000	7.50000000
2
Zeit: 0.12000000
H	nan	nan	nan
H	7.50000000	7.50000000	7.50000000
2
Zeit: 0.13000000
H	nan	nan	nan
H	7.50000000	7.50000000	7.50000000
2
Zeit: 0.14000000
H	nan	nan	nan
H	7.50000000	7.50000000	7.50000000
2
Zeit: 0.15000000
H	nan	nan	nan
H	7.50000000	7.50000000	7.50000000
2
Zeit: 0.16000000
H	nan	nan	nan
H	7.50000000	7.50000000	7.50000000
2
Zeit: 0.17000000
H	nan	nan	nan
H	7.50000000	7.50000000	7.50000000
2
Zeit: 0.18000000
H	nan	nan	nan
H	7.50000000	7.50000000	7.50000000
2
Zeit: 0.19000000
H	nan	nan	nan
H	7.50000000	7.50000000	7.50000000
2
Zeit: 0.20000000
H	nan	nan	nan
H	7.50000000	7.50000000	7.50000000
2
Zeit: 0.21000000
H	nan	nan	nan
H	7.50000000	7.50000000	7.50000000
2
Zeit: 0.22000000
H	nan	nan	nan
H	7.50000000	7.50000000	7.50000000
2
Zeit: 0.23000000
H	nan	nan	nan
H	7.50000000	7.50000000	7.50000000
2
Zeit: 0.24000000
H	nan	nan	nan
H	7.50000000	7.50000000	7.50000000
2
Zeit: 0.25000000
H	nan	nan	nan
H	7.50000000	7.50000000	7.50000000
2
Zeit: 0.26000000
H	nan	nan	nan
H	7.50000000	7.50000000	7.50000000
2
Zeit: 0.27000000
H	nan	nan	nan
H	7.50000000	7.50000000	7.50000000
2
Zeit: 0.28000000
H	nan	nan	nan
H	7.50000000	7.50000000	7.50000000
2
Zeit: 0.29000000
H	nan	nan	nan
H	7.50000000	7.50000000	7.50000000
2
Zeit: 0.30000000
H	nan	nan	nan
H	7.50000000	7.50000000	7.50000000
2
Zeit: 0.31000000
H	nan	nan	nan
H	7.50000000	7.50000000	7.50000000
2
Zeit: 0.32000000
H	nan	nan	nan
H	7.50000000	7.50000000	7.50000000
2
Zeit: 0.33000000
H	nan	nan	nan
H	7.50000000	7.50000000	7.50000000
2
Zeit: 0.34000000
H	nan	nan	nan
H	7.50000000	7.50000000	7.50000000
2
Zeit: 0.35000000
H	nan	nan	nan
H	7.50000000	7.50000000	7.50000000
2
Zeit: 0.36000000
H	nan	nan	nan
H	7.50000000	7.50000000	7.50000000
2
Zeit: 0.37000000
H	nan	nan	nan
H	7.50000000	7.50000000	7.50000000
2
Zeit: 0.38000000
H	nan	nan	nan
H	7.50000000	7.50000000	7.50000000
2
Zeit: 0.39000000
H	nan	nan	nan
H	7.50000000	7.50000000	7.50000000
2
Zeit: 0.40000000
H	nan	nan	nan
H	7.50000000	7.50000000	7.50000000
2
Zeit: 0.41000000
H	nan	nan	nan
H	7.50000000	7.50000000	7.50000000
2
Zeit: 0.42000000
H	nan	nan	nan
H	7.50000000	7.50000000	7.50000000
2
Zeit: 0.43000000
H	nan	nan	nan
H	7.50000000	7.50000000	7.50000000
2
Zeit: 0.44000000
H	nan	nan	nan
H	7.50000000	7.50000000	7.50000000
2
Zeit: 0.45000000
H	nan	nan	nan
H	7.50000000	7.50000000	7.50000000
2
Zeit: 0.46000000
H	nan	nan	nan
H	7.50000000	7.50000000	7.50000000
2
Zeit: 0.47000000
H	nan	nan	nan
H	7.50000000	7.50000000	7.50000000
2
Zeit: 0.48000000
H	nan	nan	nan
H	7.50000000	7.50000000	7.50000000
2
Zeit: 0.49000000
H	nan	nan	nan
H	7.50000000	7.50000000	7.50000000
2
Zeit: 0.50000000
H	nan	nan	nan
H	7.50000000	7.50000000	7.50000000
2
Zeit: 0.51000000
H	nan	nan	nan
H	7.50000000	7.50000000	7.50000000
2
Zeit: 0.52000000
H	nan	nan	nan
H	7.50000000	7.50000000	7.50000000
2
Zeit: 0.53000000
H	nan	nan	nan
H	7.50000000	7.50000000	7.50000000
2
Zeit: 0.54000000
H	nan	nan	nan
H	7.50000000	7.50000000	7.50000000
2
Zeit: 0.55000000
H	nan	nan	nan
H	7.50000000	7.50000000	7.50000000
2
Zeit: 0.56000000
H	nan	nan	nan
H	7.50000000	7.50000000	7.50000000
2
Zeit: 0.57000000
H	nan	nan	nan
H	7.50000000	7.50000000	7.50000000
2
Zeit: 0.58000000
H	nan	nan	nan
H	7.50000000	7.50000000	7.50000000
2
Zeit: 0.59000000
H	nan	nan	nan
H	7.50000000	7.50000000	7.50000000
2
Zeit: 0.60000000
H	nan	nan	nan
H	7.50000000	7.50000000	7.50000000
2
Zeit: 0.61000000
H	nan	nan	nan
H	7.50000000	7.50000000	7.50000000
2
Zeit: 0.62000000
H	nan	nan	nan
H	7.50000000	7.50000000	7.50000000
2
Zeit: 0.63000000
H	nan	nan	nan
H	7.50000000	7.50000000	7.50000000
2
Zeit: 0.64000000
H	nan	nan	nan
H	7.50000000	7.50000000	7.50000000
2
Zeit: 0.65000000
H	nan	nan	nan
H	7.50000000	7.50000000	7.50000000
2
Zeit: 0.66000000
H	nan	nan	nan
H	7.50000000	7.50000000	7.50000000
2
Zeit: 0.67000000
H	nan	nan	nan
H	7.50000000	7.50000000	7.50000000
2
Zeit: 0.68000000
H	nan	nan	nan
H	7.50000000	7.50000000	7.50000000
2
Zeit: 0.69000000
H	nan	nan	nan
H	7.50000000	7.50000000	7.50000000
2
Zeit: 0.70000000
H	nan	nan	nan
H	7.50000000	7.50000000	7.50000000
2
Zeit: 0.71000000
H	nan	nan	nan
H	7.50000000	7.50000000	7.50000000
2
Zeit: 0.72000000
H	nan	nan	nan
H	7.50000000	7.50000000	7.50000000
2
Zeit: 0.73000000
H	nan	nan	nan
H	7.50000000	7.50000000	7.50000000
2
Zeit: 0.74000000
H	nan	nan	nan
H	7.50000000	7.50000000	7.50000000
2
Zeit: 0.75000000
H	nan	nan	nan
H	7.50000000	7.50000000	7.50000000
2
Zeit: 0.76000000
H	nan	nan	nan
H	7.50000000	7.50000000	7.50000000
2
Zeit: 0.77000000
H	nan	nan	nan
H	7.50000000	7.50000000	7.50000000
2
Zeit: 0.78000000
H	nan	nan	nan
H	7.50000000	7.50000000	7.50000000
2
Zeit: 0.79000000
H	nan	nan	nan
H	7.50000000	7.50000000	7.50000000
2
Zeit: 0.80000000
H	nan	nan	nan
H	7.50000000	7.50000000	7.50000000
2
Zeit: 0.81000000
H	nan	nan	nan
H	7.50000000	7.50000000	7.50000000
2
Zeit: 0.82000000
H	nan	nan	nan
H	7.50000000	7.50000000	7.50000000
2
Zeit: 0.83000000
H	nan	nan	nan
H	7.50000000	7.50000000	7.50000000
2
Zeit: 0.84000000
H	nan	nan	nan
H	7.50000000	7.50000000	7.50000000
2
Zeit: 0.85000000
H	nan	nan	nan
H	7.50000000	7.50000000	7.50000000
2
Zeit: 0.86000000
H	nan	nan	nan
H	7.50000000	7.50000000	7.50000000
2
Zeit: 0.87000000
H	nan	nan	nan
H	7.50000000	7.50000000	7.50000000
2
Zeit: 0.88000000
H	nan	nan	nan
H	7.50000000	7.50000000	7.50000000
2
Zeit: 0.89000000
H	nan	nan	nan
H	7.50000000	7.50000000	7.50000000
2
Zeit: 0.90000000
H	nan	nan	nan
H	7.50000000	7.50000000	7.50000000
2
Zeit: 0.91000000
H	nan	nan	nan
H	7.50000000	7.50000000	7.50000000
2
Zeit: 0.92000000
H	nan	nan	nan
H	7.50000000	7.50000000	7.50000000
2
Zeit: 0.93000000
H	nan	nan	nan
H	7.50000000	7.50000000	7.50000000
2
Zeit: 0.94000000
H	nan	nan	nan
H	7.50000000	7.50000000	7.50000000
2
Zeit: 0.95000000
H	nan	nan	nan
H	7.50000000	7.50000000	7.50000000
2
Zeit: 0.96000000
H	nan	nan	nan
H	7.50000000	7.50000000	7.50000000
2
Zeit: 0.97000000
H	nan	nan	nan
H	7.50000000	7.50000000	7.50000000
2
Zeit: 0.98000000
H	nan	nan	nan
H	7.50000000	7.50000000	7.50000000
2
Zeit: 0.99000000
H	nan	nan	nan
H	7.50000000	7.50000000	7.50000000
2
Zeit: 1.00000000
H	nan	nan	nan
H	7.50000000	7.50000000	7.50000000
